Circuit: * D:\TCDEIE\Project\ltspice\d\Draft2.asc

Direct Newton iteration for .op point succeeded.

Date: Fri Jul 21 20:22:56 2023
Total elapsed time: 0.204 seconds.

tnom = 27
temp = 27
method = trap
totiter = 7
traniter = 0
tranpoints = 0
accept = 0
rejected = 0
matrix size = 9
fillins = 0
solver = Normal
Matrix Compiler1:      23 opcodes
Matrix Compiler2: 667 bytes object code size
